21
3588.52
O 1.098748 -1.790624 -0.651116
C 0.096470 -0.904219 -0.337854
C -1.264000 -0.896473 -1.005926
N -2.270014 -0.378341 -0.068204
C -1.364937 0.490087 0.737801
C -0.786621 1.368192 -0.396284
F 0.300566 2.140708 0.056938
C -0.325573 0.244436 -1.282371
C -0.179782 -0.406982 1.042549
C 0.412393 -0.706224 2.186937
H 1.925206 -1.275659 -0.626493
H -1.554294 -1.611160 -1.759211
H -2.621849 -1.130570 0.517921
H -1.854520 1.001279 1.559117
H -1.506340 2.057316 -0.831789
H 0.147391 0.383716 -2.241166
H 1.234767 -1.409397 2.217095
H 0.091693 -0.270293 3.123750
O 2.919624 0.418575 -0.342248
H 3.439580 0.425934 0.466687
H 2.208686 1.054330 -0.183131
