18
3554.57
O 0.454965 -1.417896 0.018220
C -0.142012 -0.234829 0.006350
C -1.554961 -0.227581 0.000579
C -2.258378 0.975468 -0.013448
C -1.592539 2.194091 -0.022079
C -0.210786 2.208700 -0.012443
C 0.520452 1.013404 0.003835
C 1.941576 1.064617 0.028832
N 3.094935 1.078473 0.055116
C -2.263727 -1.465973 0.009285
N -2.870997 -2.445059 0.018274
H 1.444846 -1.426889 -0.028489
H -3.338584 0.941998 -0.018670
H -2.148392 3.119670 -0.034503
H 0.329549 3.144730 -0.015372
O 3.103569 -1.831660 -0.132022
H 3.452327 -2.389873 0.569407
H 3.586661 -0.994471 -0.081153
