15
3541.73
C -2.701890 -1.250421 0.004038
C -1.282807 -0.954622 0.002000
C -0.115322 -0.660961 0.004645
C 1.258205 -0.220768 0.014171
C 2.317989 -1.289262 -0.050465
O 1.535201 0.965615 0.074642
H -2.974788 -1.823621 0.891894
H -2.977880 -1.840848 -0.871341
H -3.281237 -0.326333 -0.001724
H 2.186211 -1.890272 -0.952173
H 3.304385 -0.832810 -0.044795
H 2.212985 -1.965878 0.799844
O -0.850658 2.733912 0.050265
H -0.042837 2.208399 0.152506
H -0.760244 3.131347 -0.819795
