20
3499.82
C -2.144394 1.483020 -0.003439
C -1.455455 0.138092 -0.003714
O -2.105146 -0.896253 -0.009562
C 0.034329 0.080759 -0.000397
C 0.829913 1.230280 0.004467
C 2.214179 1.138365 0.006188
C 2.791528 -0.119594 0.003058
F 4.131827 -0.217537 0.004951
C 2.036058 -1.282538 -0.002280
C 0.657083 -1.173054 -0.004186
H -1.868970 2.053480 -0.892573
H -3.220618 1.334708 0.011645
H -1.842102 2.071678 0.864603
H 0.374499 2.209733 0.006165
H 2.842912 2.016884 0.009585
H 2.531845 -2.242596 -0.005456
H 0.034805 -2.056113 -0.009525
O -4.958603 -0.468842 -0.080676
H -4.036445 -0.772077 -0.100699
H -5.271817 -0.709086 0.795413
