25
3548.12
C 3.683265 1.034733 0.263997
C 2.438869 0.211259 0.590487
C 1.965091 -0.641671 -0.588456
C 0.725233 -1.478902 -0.282977
C -0.572866 -0.696150 -0.182253
O -0.666107 0.431589 -0.624124
C -1.733812 -1.409029 0.482470
C -3.101458 -0.780696 0.245304
H 4.517783 0.392724 -0.026087
H 4.004226 1.627781 1.121324
H 3.492874 1.722180 -0.562317
H 1.632574 0.880390 0.899065
H 2.646990 -0.440304 1.445301
H 1.752653 0.005200 -1.441638
H 2.773028 -1.311862 -0.893709
H 0.855137 -2.066091 0.631350
H 0.559994 -2.218775 -1.075440
H -1.497995 -1.431017 1.553637
H -1.713536 -2.457405 0.170409
H -3.130223 0.255403 0.576405
H -3.356854 -0.791152 -0.814624
H -3.870296 -1.336683 0.781814
O -2.489278 2.647472 -0.083718
H -1.944542 3.160237 0.519107
H -1.904669 1.939616 -0.393294
