20
3540.03
C -1.902283 -1.338629 0.837282
O -2.069376 -0.793285 -0.476950
C -0.811022 -1.412365 -0.145979
C 0.410433 -0.566973 -0.074981
C 0.352280 0.802497 0.191995
C 1.523026 1.544540 0.276728
C 2.760765 0.934764 0.099263
C 2.823673 -0.426086 -0.173231
C 1.653809 -1.170046 -0.264973
H -1.840290 -0.604034 1.632187
H -2.500871 -2.218284 1.047176
H -0.670105 -2.366060 -0.645328
H -0.604534 1.293304 0.312206
H 1.467337 2.605782 0.479832
H 3.669133 1.518355 0.166497
H 3.780956 -0.907843 -0.321163
H 1.706535 -2.229094 -0.486247
O -2.966122 1.943502 -0.178710
H -2.848868 2.462268 -0.979108
H -2.739399 1.037650 -0.437400
