27
3276.52
C -3.592787 0.267643 0.614818
C -2.315298 -0.562064 0.638335
N -1.665355 -0.541301 -0.664252
C -0.507944 -1.404893 -0.811558
C 0.735488 -1.105768 0.042473
N 1.357642 0.170783 -0.325155
C 2.509347 0.572840 0.492614
C 3.753798 -0.310747 0.388549
H -4.279324 -0.109243 -0.143248
H -3.370782 1.309583 0.376801
H -4.092366 0.242997 1.584556
H -1.671009 -0.198956 1.456036
H -2.555403 -1.602729 0.877935
H -1.446242 0.414394 -0.923016
H -0.212367 -1.395992 -1.865975
H -0.818002 -2.431251 -0.593039
H 0.461728 -1.047688 1.098431
H 1.426407 -1.954067 -0.057048
H 1.636605 0.136195 -1.301061
H 2.766388 1.595630 0.208741
H 2.171321 0.615139 1.530891
H 4.112991 -0.359024 -0.641814
H 4.559982 0.096392 1.001198
H 3.563273 -1.328861 0.728016
O -0.398344 2.427245 -0.563838
H -0.622111 2.773957 0.303876
H 0.214027 1.677122 -0.396102
