16
3579.83
C -0.984617 1.666941 -0.728391
O -0.532593 0.787236 0.312269
N 0.734759 0.259383 0.009750
C 1.836835 0.922862 0.674204
C 0.752586 -1.066384 -0.337859
O 1.760896 -1.733607 -0.407659
H -0.295782 2.503442 -0.852695
H -1.094049 1.127682 -1.669145
H -1.953621 2.032274 -0.395952
H 1.674676 0.957405 1.753475
H 1.959627 1.936400 0.294331
H 2.730697 0.343706 0.457948
H -0.257039 -1.436139 -0.571651
O -2.798659 -1.075484 0.304645
H -2.073467 -0.509225 0.599351
H -2.900343 -1.736897 0.994327
