24
3461.60
C -3.295359 -1.446504 -0.330724
C -2.392915 -0.273764 -0.049300
O -2.623325 0.825858 -0.517355
C -1.170838 -0.508129 0.817206
C 0.109834 -0.532616 -0.037018
C 1.378814 -0.590477 0.828154
C 2.612128 -0.469965 -0.053311
C 3.141729 0.926392 -0.286512
O 3.120219 -1.447126 -0.555763
H -4.075098 -1.169006 -1.034711
H -3.746694 -1.791507 0.603004
H -2.713642 -2.283679 -0.723307
H -1.267304 -1.436741 1.381989
H -1.104893 0.323548 1.520553
H 0.129446 0.368594 -0.648781
H 0.100301 -1.391082 -0.711978
H 1.352508 0.224925 1.553490
H 1.430602 -1.540338 1.361451
H 3.857935 0.926700 -1.104123
H 3.639926 1.269767 0.624712
H 2.329017 1.628574 -0.480955
O -0.521591 2.675361 0.133253
H -1.323836 2.201630 -0.146232
H -0.711046 3.606254 -0.007165
