17
3562.43
C 2.928333 -1.451596 0.277438
C 1.998836 -0.303897 0.006141
O 2.383074 0.832410 -0.204535
C 0.578045 -0.582866 -0.000567
C -0.622270 -0.695167 -0.012039
C -2.080213 -0.646288 -0.057766
C -2.691794 0.413845 0.816824
O -2.704213 -1.391053 -0.779113
H 3.956755 -1.100548 0.284006
H 2.797003 -2.220370 -0.486703
H 2.680695 -1.912162 1.235878
H -2.489307 0.186145 1.866204
H -2.219920 1.375896 0.604611
H -3.765024 0.452952 0.648394
O 0.017317 2.741950 -0.157623
H 0.838922 2.229250 -0.161877
H -0.034169 3.118199 -1.040520
