23
3513.15
C -4.216939 0.008313 0.972404
C -3.546592 0.056319 -0.409218
C -2.041434 0.052440 -0.326804
C -1.324142 1.248994 -0.274732
C 0.057948 1.242503 -0.164103
C 0.754965 0.034908 -0.104140
C 2.218367 0.050392 0.008502
O 2.920354 -0.941712 0.063953
C 0.045006 -1.169067 -0.158559
C -1.332635 -1.154646 -0.268519
H -5.303027 0.010079 0.873589
H -3.928181 -0.891027 1.517482
H -3.930210 0.869610 1.576806
H -3.878352 0.951109 -0.939301
H -3.878799 -0.800224 -0.999313
H -1.854934 2.191206 -0.327005
H 0.605762 2.176387 -0.128962
H 2.682661 1.052594 0.041255
H 0.594067 -2.099720 -0.118251
H -1.876183 -2.090079 -0.316648
O 5.412424 0.467490 0.182225
H 4.721504 -0.209543 0.103459
H 5.696192 0.412449 1.098485
