21
3517.50
C 2.404725 -2.077339 0.034783
C 1.709652 -0.734322 -0.001240
O 2.378475 0.286308 -0.034440
C 0.217911 -0.689253 0.003075
C -0.558517 -1.851367 -0.012446
C -1.945169 -1.754781 -0.016085
C -2.569802 -0.517061 -0.005598
C -1.795984 0.644281 0.010468
O -2.449152 1.839259 0.018799
C -0.411310 0.558613 0.018497
H 2.109310 -2.647119 0.916987
H 3.478448 -1.914897 0.048355
H 2.139864 -2.673229 -0.840210
H -0.094409 -2.825925 -0.024585
H -2.546722 -2.653561 -0.029463
H -3.647422 -0.430811 -0.010962
H -1.804192 2.555269 -0.004745
H 0.183823 1.461970 0.040522
O 1.772001 3.121484 -0.091298
H 2.115885 2.216218 -0.154712
H 2.145781 3.463057 0.725599
