19
3566.53
O -0.446196 2.168351 0.003019
C 0.261109 1.015214 -0.000448
C 1.649433 0.982776 0.005882
C 2.333977 -0.236418 0.001455
C 1.608591 -1.437367 -0.009628
C 0.228730 -1.405831 -0.015906
C -0.463405 -0.189159 -0.011324
C -1.887085 -0.172689 -0.016510
N -3.038292 -0.190889 -0.020227
C 3.757866 -0.253213 0.008135
C 4.958981 -0.270155 0.013775
H 0.149184 2.925143 0.014596
H 2.209505 1.908653 0.014375
H 2.135315 -2.379482 -0.012911
H -0.337440 -2.326023 -0.023907
H 6.020408 -0.287383 0.018889
O -6.073622 -0.483243 0.079848
H -6.331286 0.251320 -0.483013
H -5.108284 -0.435818 0.098032
