23
3583.21
N 5.237296 -0.038442 0.999010
C 4.297957 0.164394 0.368110
C 3.112539 0.399447 -0.457193
N 1.952076 -0.303582 0.072536
C 0.762238 -0.133688 -0.755539
C -0.443184 -0.789646 -0.094980
N -1.614025 -0.665845 -0.961624
C -2.827437 -1.240966 -0.411733
C -3.349006 -0.508590 0.764770
N -3.696435 0.161153 1.634935
H 3.368268 0.128829 -1.494150
H 2.904796 1.472429 -0.456813
H 2.169942 -1.287552 0.177301
H 0.880579 -0.535076 -1.772835
H 0.570507 0.938227 -0.853491
H -0.585326 -0.343529 0.897682
H -0.244576 -1.855770 0.056240
H -1.780797 0.317171 -1.158686
H -3.610607 -1.244322 -1.171504
H -2.652280 -2.279996 -0.127296
O -2.255776 2.276698 -0.328167
H -2.711854 2.009520 0.480356
H -2.733464 3.047784 -0.646067
