15
3250.41
O 1.233585 1.427654 -0.014897
C 0.147137 0.647534 -0.006623
C -1.114257 1.260360 0.013060
C -2.231752 0.453553 0.019624
C -2.081719 -0.934828 0.006138
C -0.798473 -1.444151 -0.013146
N 0.300179 -0.677350 -0.018659
H 2.041227 0.863303 -0.035608
H -1.178092 2.338212 0.021109
H -3.218519 0.897282 0.034025
H -2.935254 -1.596422 0.009465
H -0.626667 -2.513824 -0.025802
O 3.089973 -0.592268 -0.072470
H 2.204053 -1.012943 -0.058179
H 3.497930 -0.812049 0.770220
