22
3515.95
O 2.999892 0.110027 0.040076
C 2.073182 -0.772791 0.520605
C 0.932824 -1.181955 -0.408287
C -0.395090 -1.887071 -0.632715
N -1.271602 -0.727663 -0.259562
C -2.554808 -0.325318 -0.489355
C -2.740686 0.866628 0.180196
C -1.529451 1.188202 0.862074
C -0.626921 0.189788 0.569892
C 0.648801 -0.466083 0.954277
H 2.545883 0.901692 -0.306812
H 2.538578 -1.491339 1.182961
H 0.968712 -0.404046 -1.169507
H -0.577777 -2.734511 0.029466
H -0.581973 -2.179733 -1.664815
H -3.227224 -0.881830 -1.118858
H -3.645548 1.450917 0.174390
H -1.360767 2.029949 1.512445
H 0.428591 -1.225342 1.708045
O 1.398289 2.305649 -0.761559
H 1.259158 2.562347 -1.677777
H 0.521026 2.071737 -0.420862
