19
3555.00
C 2.767373 -0.617387 0.617752
C 1.930477 -0.307476 -0.632986
C 0.490283 -0.008720 -0.255294
O -0.259102 -0.914337 0.052619
C 0.062884 1.442808 -0.263837
C -1.307464 1.722526 0.337019
H 3.792689 -0.859565 0.339602
H 2.799004 0.234973 1.298239
H 2.347096 -1.466386 1.154979
H 2.364480 0.532792 -1.176955
H 1.925114 -1.176700 -1.291916
H 0.847912 2.020538 0.235936
H 0.108839 1.766912 -1.311007
H -1.548753 2.782184 0.253666
H -2.088338 1.149794 -0.159591
H -1.332688 1.453109 1.392984
O -3.165590 -1.200669 0.067446
H -2.206397 -1.145847 0.192318
H -3.272743 -1.762266 -0.704699
