14
3499.82
C 1.459371 1.661287 0.000412
C 0.528783 0.472267 -0.000990
O 0.940536 -0.676053 -0.013339
C -0.909329 0.794343 0.008732
C -1.881779 -0.115465 0.003230
F -3.160031 0.199412 0.010139
F -1.737669 -1.409344 -0.008769
H 2.492661 1.326440 0.029014
H 1.290564 2.263392 -0.895758
H 1.247162 2.303556 0.858205
H -1.223308 1.826827 0.018790
O 3.825024 -0.781232 -0.081684
H 2.864375 -0.920574 -0.102139
H 4.101096 -1.126569 0.771431
