20
3538.37
C 0.924484 2.674789 -0.017421
C 0.991757 1.162718 0.000631
O 2.080617 0.613317 0.016496
C -0.278487 0.379364 -0.001435
C -0.221429 -1.019983 -0.010495
C -1.389487 -1.766084 -0.010109
C -2.628136 -1.131243 -0.001275
C -2.696341 0.256973 0.006965
C -1.528668 1.007385 0.006396
H 0.386390 3.032862 -0.896536
H 0.398213 3.050941 0.861515
H 1.936783 3.067912 -0.026569
H 0.739102 -1.515991 -0.016163
H -1.334257 -2.846231 -0.015297
H -3.537655 -1.717316 -0.000161
H -3.656814 0.754206 0.014369
H -1.597824 2.085541 0.013721
O 3.085972 -2.102213 0.093992
H 2.867405 -1.158870 0.138927
H 3.423795 -2.225402 -0.797256
