15
3528.57
O 2.377089 -0.716177 -0.202851
C 1.363470 -1.341879 0.004716
C 0.119615 -0.763201 0.622246
C -0.820074 -0.242030 -0.490891
C -2.045839 0.400060 0.110289
O -3.174754 0.037456 -0.093126
H 1.307128 -2.405443 -0.296817
H -0.387651 -1.536788 1.202606
H 0.400071 0.062112 1.276416
H -1.134785 -1.038339 -1.165060
H -0.281948 0.527297 -1.051305
H -1.834662 1.259198 0.779011
O 1.548925 2.030500 0.045418
H 2.095112 1.233519 -0.039716
H 2.123624 2.766508 -0.178832
