17
3536.08
N -1.661050 -1.150356 0.712108
C -0.497142 -0.399959 0.479058
C -0.529383 0.994826 0.582234
C 0.605570 1.738936 0.296859
C 1.789567 1.126745 -0.101890
C 1.791955 -0.252209 -0.203126
F 2.924612 -0.878227 -0.586827
C 0.682838 -1.028638 0.077280
H -2.267030 -0.757847 1.418007
H -1.497209 -2.130537 0.885625
H -1.450826 1.486259 0.863660
H 0.568027 2.816482 0.382976
H 2.682359 1.689794 -0.328718
H 0.747957 -2.104113 -0.017044
O -3.760775 0.205561 -0.922752
H -3.369170 0.656187 -1.675726
H -3.082499 -0.422385 -0.632560
