20
3554.82
C 2.264880 -2.207148 0.007200
C 1.660198 -0.820551 0.004887
O 2.391381 0.154013 0.007453
C 0.171696 -0.677756 0.000761
C -0.671568 -1.793485 -0.005237
C -2.050966 -1.633117 -0.007189
C -2.608351 -0.361491 -0.002159
C -1.757708 0.733329 0.003916
F -2.299664 1.965604 0.010105
C -0.384238 0.607076 0.004855
H 1.941971 -2.773259 0.882344
H 1.955051 -2.768138 -0.876011
H 3.346809 -2.114371 0.014735
H -0.258602 -2.790879 -0.008972
H -2.696366 -2.500539 -0.012541
H -3.678045 -0.207603 -0.003421
H 0.239533 1.490984 0.004428
O 2.050470 3.028931 -0.107639
H 2.318689 2.098150 -0.115146
H 2.249460 3.330515 0.782910
