14
3590.28
C -2.095031 -1.211245 0.090676
N -0.839639 -0.515697 -0.088108
O 0.105544 -1.194887 -0.852838
C -0.703108 0.820351 0.086757
O -1.534955 1.569430 0.557328
C 0.647698 1.313351 -0.261156
N 1.697415 1.751981 -0.433685
H -1.933027 -2.116382 0.674583
H -2.775195 -0.545514 0.613915
H -2.514076 -1.481094 -0.879891
H 0.862659 -1.385019 -0.253070
O 2.426686 -1.249878 0.568253
H 2.718177 -0.369229 0.297701
H 2.561478 -1.288810 1.519706
