14
3538.48
C -0.314748 1.154382 0.261685
C -0.128100 -0.321633 0.076109
O -1.030535 -1.090611 -0.163630
C 1.286867 -0.912153 0.244978
C 2.386439 -0.013301 -0.071269
N 3.243396 0.707741 -0.332197
H 0.130855 1.475136 1.206051
H 0.221176 1.690676 -0.524916
H -1.372509 1.401582 0.233731
H 1.373078 -1.221961 1.291353
H 1.349082 -1.815891 -0.360135
O -3.585748 0.340149 -0.032116
H -2.879631 -0.317226 -0.116093
H -3.978298 0.393422 -0.907665
