20
3561.38
C 1.377004 2.586898 -0.195171
C 1.203785 1.081879 -0.196996
O 2.178336 0.358793 -0.278185
C -0.180392 0.532771 -0.086543
C -1.210437 1.277315 0.503833
C -2.485754 0.759608 0.660195
C -2.768954 -0.523111 0.202610
C -1.779257 -1.279624 -0.407760
C -0.507838 -0.749971 -0.541276
F 0.407733 -1.496413 -1.167880
H 2.405642 2.814896 -0.459711
H 1.176208 2.992431 0.798837
H 0.693298 3.072652 -0.891448
H -0.999796 2.273998 0.863341
H -3.255327 1.352102 1.134369
H -3.762090 -0.935563 0.317103
H -1.970318 -2.274548 -0.783055
O 2.208967 -2.181321 1.212475
H 2.248033 -1.497165 0.529470
H 2.807382 -1.865453 1.894342
