23
3531.93
C -2.510736 -1.976820 0.036779
C -1.749885 -0.668453 0.006369
O -2.370113 0.382184 -0.015858
C -0.258351 -0.696962 0.003910
C 0.453768 -1.898741 -0.017112
C 1.842102 -1.882232 -0.027165
C 2.524470 -0.673961 -0.014457
C 1.835373 0.542722 0.009819
C 2.582135 1.850862 0.031701
C 0.446165 0.513278 0.018601
H -3.574846 -1.760569 0.055755
H -2.241989 -2.566552 0.914492
H -2.280157 -2.579935 -0.843032
H -0.064321 -2.846474 -0.029873
H 2.392567 -2.813252 -0.047072
H 3.607799 -0.672577 -0.025130
H 1.901727 2.693754 -0.074201
H 3.314072 1.900954 -0.776370
H 3.129068 1.974977 0.969201
H -0.105915 1.442872 0.035386
O -1.753561 3.213262 -0.117508
H -2.067775 2.297008 -0.163118
H -2.011091 3.508061 0.760221
