23
3538.19
C 0.741462 2.751724 -0.333234
C 0.837845 1.240332 -0.238975
O 1.939780 0.717958 -0.289713
C -0.414139 0.446082 -0.082725
C -1.556979 1.088992 0.413568
C -2.742978 0.406795 0.623230
C -2.808806 -0.943417 0.306525
C -1.693173 -1.587393 -0.208960
C -0.478362 -0.929399 -0.408052
C 0.672291 -1.717611 -0.974100
H 0.509555 3.178072 0.645101
H -0.037802 3.071196 -1.024482
H 1.706270 3.135026 -0.653224
H -1.512350 2.140262 0.657133
H -3.604825 0.922879 1.023213
H -3.728168 -1.494659 0.453878
H -1.759661 -2.636554 -0.466439
H 1.185966 -1.176672 -1.767521
H 0.308432 -2.663112 -1.375137
H 1.421365 -1.933494 -0.211720
O 3.439237 -1.332860 1.149316
H 2.982571 -0.600469 0.710912
H 4.153549 -1.559884 0.547801
