18
3462.76
C -2.381667 -0.845102 -0.108280
C -0.897638 -0.938616 0.101195
O -0.231793 -1.832414 -0.384555
C -0.246073 0.159396 0.931751
C -0.007257 1.410095 0.060018
C 1.426327 1.813316 -0.138846
O -0.939430 2.008417 -0.424021
H -2.634852 0.157876 -0.456686
H -2.713546 -1.600502 -0.815269
H -2.892097 -0.985780 0.847945
H -0.918035 0.460197 1.736777
H 0.689756 -0.212709 1.339841
H 1.489362 2.644433 -0.836133
H 2.012148 0.956317 -0.478916
H 1.852549 2.106956 0.824683
O 2.538213 -1.349986 -0.028812
H 1.654834 -1.706957 -0.225137
H 3.161804 -2.022505 -0.313034
