22
3495.57
C -1.204635 2.502203 -0.418958
C -1.353951 0.993347 -0.296198
O -2.220528 0.672462 0.818523
C -0.059478 0.201849 -0.206814
C -0.117705 -1.192596 -0.307101
C 1.037709 -1.953977 -0.205934
C 2.274748 -1.348026 -0.005655
C 2.313296 0.028765 0.089341
F 3.502592 0.640512 0.281426
C 1.176452 0.814048 -0.006831
H -2.192224 2.954783 -0.490655
H -0.703804 2.929254 0.451541
H -0.635365 2.771774 -1.309336
H -1.910339 0.626294 -1.160081
H -1.705160 0.724834 1.630822
H -1.074650 -1.676208 -0.454477
H 0.979147 -3.030906 -0.286499
H 3.187973 -1.920206 0.072542
H 1.281892 1.886015 0.068653
O -3.487966 -1.774218 0.060481
H -4.303919 -1.547057 -0.392735
H -3.177546 -0.942826 0.454265
