20
3492.32
N 2.507737 -1.058743 -0.471892
C 1.164401 -0.624207 -0.355756
C 0.179847 -1.443621 0.190434
C -1.120467 -0.986239 0.364769
C -1.466731 0.305590 -0.018541
N -2.755777 0.845091 0.215653
O -3.778638 -0.155142 0.195660
C -0.484512 1.127977 -0.574737
C 0.815032 0.674933 -0.730187
H 2.608945 -2.059537 -0.382202
H 2.950420 -0.751293 -1.327234
H 0.426924 -2.457129 0.483011
H -1.874455 -1.638673 0.777161
H -3.006394 1.499562 -0.516179
H -4.185788 -0.067290 1.063611
H -0.735115 2.137970 -0.876102
H 1.571628 1.336501 -1.131579
O 4.070341 1.083701 0.846081
H 3.506328 1.477511 1.516885
H 3.614736 0.262861 0.596484
