23
3511.47
O -1.241642 -1.402390 -0.257458
C -0.289454 -0.875653 0.284385
C 1.068718 -1.728486 0.337727
C 2.300321 -1.045229 -0.402261
C 1.692389 0.368809 -0.306625
C 1.526776 1.894331 -0.315880
C -0.006619 1.862096 0.132141
C -0.496928 0.564271 0.925642
H 0.813198 -2.704235 -0.070288
H 1.326940 -1.859143 1.392686
H 3.226989 -1.205280 0.148146
H 2.423010 -1.422098 -1.417108
H 1.470073 0.289406 0.744318
H 0.814246 0.148333 -0.913736
H 2.153160 2.405076 0.416358
H 1.627479 2.395619 -1.277870
H -0.258767 2.728415 0.745303
H -0.619639 1.926660 -0.768205
H -1.575297 0.669859 1.046794
H -0.048422 0.560911 1.924268
O -3.621686 0.214138 -0.427790
H -4.326370 -0.243050 0.038477
H -2.891192 -0.425291 -0.457929
