18
3450.62
C 1.511976 2.403042 0.295465
O 1.249888 0.986550 0.326941
C 0.075068 0.589043 -0.151049
O -0.758246 1.354944 -0.592953
C -0.168054 -0.921783 -0.042362
O -1.094089 -1.158307 0.998765
C 1.065053 -1.751622 0.260702
F 1.961819 -1.656324 -0.800154
H 2.508385 2.521763 0.707763
H 0.778492 2.935001 0.897813
H 1.471846 2.769866 -0.727874
H -0.566340 -1.234401 -1.013891
H -1.971097 -0.859108 0.688062
H 0.768700 -2.794191 0.371474
H 1.562733 -1.410377 1.166850
O -3.230538 0.045378 -0.313396
H -3.897222 0.547640 0.162975
H -2.552243 0.690126 -0.583167
