18
3598.35
O -3.162347 -0.345455 0.017885
C -1.850638 -0.669389 0.005269
C -1.395057 -1.986373 -0.003889
C -0.036143 -2.258844 -0.016149
C 0.896842 -1.230442 -0.019460
C 0.448847 0.089587 -0.011704
C 1.422494 1.135462 -0.020553
N 2.258197 1.928644 -0.031297
C -0.928619 0.388839 0.001210
C -1.395565 1.734367 0.010381
N -1.768577 2.824316 0.018755
H -3.703992 -1.141615 0.017437
H -2.114510 -2.795952 -0.001726
H 0.301209 -3.285819 -0.023975
H 1.960469 -1.424568 -0.028591
O 4.224814 -0.602502 -0.036504
H 4.676219 -0.573305 0.812148
H 3.980558 0.314963 -0.209177
