31
3531.55
C -4.200195 -0.226145 -0.147972
C -2.813897 -0.840982 -0.330045
C -1.941997 -0.703823 0.920437
C -0.535414 -1.275313 0.758899
C 0.403149 -0.488890 -0.136656
O 0.175599 0.652699 -0.484022
C 1.650904 -1.221857 -0.600755
C 2.813678 -0.338671 -1.063334
C 3.771063 0.096194 0.053570
C 3.151526 0.974535 1.140628
H -4.812228 -0.355424 -1.042016
H -4.117468 0.842198 0.054714
H -4.732040 -0.688970 0.686384
H -2.907981 -1.900599 -0.590172
H -2.315852 -0.356688 -1.172856
H -1.878811 0.348176 1.201136
H -2.429029 -1.218668 1.753004
H -0.030132 -1.329905 1.731117
H -0.565272 -2.309461 0.400343
H 1.965323 -1.925960 0.174907
H 1.304850 -1.849758 -1.431038
H 2.403472 0.540165 -1.563960
H 3.388485 -0.887357 -1.812061
H 4.209547 -0.795515 0.513507
H 4.603310 0.635725 -0.405607
H 2.373083 0.449740 1.697504
H 2.699159 1.871441 0.716422
H 3.907511 1.285812 1.862869
O -1.873261 2.698209 -0.146752
H -1.164016 2.045794 -0.252159
H -2.113518 2.941707 -1.044484
