15
3476.64
N 3.636318 -1.083847 0.001863
C 2.582281 -0.618500 0.000554
C 1.274834 -0.045753 0.000371
C 1.089876 1.338927 0.003648
C -0.202806 1.833491 0.004158
C -1.263127 0.935252 0.002540
N -1.094276 -0.390107 -0.000816
C 0.143727 -0.869600 -0.002823
H 1.944643 2.000318 0.005082
H -0.390324 2.897529 0.005166
H -2.291325 1.275362 0.000547
H 0.256105 -1.946467 -0.007888
O -3.974796 -0.898115 -0.094842
H -3.011383 -1.019580 -0.092861
H -4.252359 -1.147468 0.790678
