13
3488.72
N -0.886209 1.516778 0.068233
C 0.222024 0.639646 0.040250
C 1.576313 0.789647 -0.137335
N 2.152496 -0.442265 -0.110861
N 1.233155 -1.341638 0.081319
N 0.058569 -0.696747 0.168287
H -1.145235 1.772323 1.014984
H -0.692506 2.366637 -0.443915
H 2.153360 1.686594 -0.278435
H -0.829130 -1.184307 0.241418
O -2.805636 -0.704995 -0.040072
H -3.259986 -1.015232 -0.828233
H -2.477508 0.185295 -0.251574
