13
3663.78
C -1.884329 -0.954074 0.327053
N -0.677381 -0.379838 -0.229662
O 0.447125 -1.232181 -0.165656
C -0.395670 0.963704 -0.186113
O -1.230798 1.816717 0.012962
H -1.703402 -1.337072 1.333382
H -2.248537 -1.761951 -0.306944
H -2.623416 -0.158101 0.366223
H 0.525350 -1.615340 -1.048800
H 0.667027 1.162527 -0.387430
O 3.062284 0.186951 0.101893
H 2.296244 -0.384885 0.236521
H 3.279507 0.524011 0.975444
