17
3532.55
N 1.377773 0.997057 0.670987
C 0.228407 0.235322 0.405601
C 0.208515 -1.152801 0.553602
C -0.927619 -1.883507 0.231019
C -2.064530 -1.248274 -0.255502
C -2.061385 0.133377 -0.417211
C -0.925396 0.841610 -0.086544
F -0.911851 2.192903 -0.231194
H 1.901252 0.672451 1.471194
H 1.195139 1.987597 0.736103
H 1.103294 -1.651743 0.901805
H -0.919666 -2.957564 0.356126
H -2.947168 -1.818125 -0.508491
H -2.923920 0.667573 -0.789972
O 3.538073 -0.543296 -0.676105
H 3.223900 -0.960900 -1.482471
H 2.876879 0.137200 -0.477407
