19
3554.61
O -1.489512 -1.123211 -0.041391
C -0.845158 -0.084442 -0.024544
C -1.540173 1.189908 -0.022341
C -2.178775 2.206198 -0.024633
C 0.637627 -0.072366 -0.008069
C 1.362567 1.121424 0.017049
C 2.750068 1.093424 0.032242
C 3.419529 -0.124943 0.022147
C 2.701711 -1.319078 -0.003270
C 1.317664 -1.295087 -0.018252
H -2.762505 3.093579 -0.029809
H 0.836984 2.066015 0.024144
H 3.308346 2.019327 0.051528
H 4.501160 -0.146171 0.033625
H 3.225588 -2.265138 -0.011757
H 0.741840 -2.209106 -0.038768
O -4.448200 -0.964026 -0.037241
H -3.490845 -1.076282 -0.125319
H -4.609235 -1.074562 0.903436
