20
3509.09
C -3.706259 -0.803146 0.005071
C -2.316632 -0.222621 0.000832
C -2.114355 1.166083 -0.003725
C -0.851830 1.721130 -0.005087
C 0.291990 0.913291 -0.002952
O 1.476297 1.537679 -0.004757
C 0.105339 -0.483510 -0.001451
C -1.193197 -1.026304 0.001701
C 1.223683 -1.359580 -0.009580
N 2.152182 -2.046207 -0.019427
H -4.273889 -0.481036 -0.870377
H -4.266418 -0.485565 0.887004
H -3.680633 -1.891950 0.002320
H -2.974075 1.825180 -0.004623
H -0.711666 2.792789 -0.006121
H 2.273152 0.960492 0.035184
H -1.295647 -2.103239 0.003950
O 3.907872 0.277187 0.099601
H 4.430347 0.430652 -0.693281
H 3.727768 -0.674854 0.114332
