19
3560.64
O -0.449878 3.139085 0.299145
C -1.242424 2.314352 -0.064607
C -1.041865 0.785197 -0.092157
O -2.095634 0.168971 -0.142155
C 0.285733 0.147229 -0.038217
C 0.351987 -1.251955 0.062291
C 1.580472 -1.887893 0.091696
C 2.755934 -1.143838 0.016642
C 2.699912 0.241041 -0.086094
C 1.473529 0.889226 -0.111723
H -2.275481 2.569859 -0.367136
H -0.559748 -1.830744 0.114954
H 1.624244 -2.965528 0.169972
H 3.714526 -1.645346 0.037426
H 3.612320 0.818400 -0.144989
H 1.434965 1.964044 -0.178851
O -2.803938 -2.679190 -0.029835
H -2.728333 -1.722441 -0.152784
H -3.206549 -2.779320 0.837190
