22
3500.74
C -2.022805 -2.411412 -0.017249
C -1.683460 -0.933309 0.001862
O -2.597339 -0.118617 0.018501
C -0.264707 -0.522309 0.000785
C 0.784080 -1.451809 -0.000535
C 2.105165 -1.049224 0.001007
C 2.431461 0.315202 0.003485
N 3.744488 0.727233 0.055187
C 1.384759 1.252571 0.003785
C 0.069705 0.841876 0.001635
H -1.603902 -2.900856 -0.897953
H -3.103638 -2.518049 -0.025139
H -1.617497 -2.916905 0.860906
H 0.570989 -2.511322 -0.002451
H 2.896774 -1.787986 0.004903
H 4.451038 0.066855 -0.219595
H 3.942304 1.677104 -0.208655
H 1.617975 2.310109 0.009642
H -0.718185 1.582439 -0.000550
O -2.838701 2.738593 0.081895
H -2.856936 1.769078 0.135412
H -3.127207 2.929574 -0.814644
