18
3551.96
O -1.646808 2.208051 -0.004764
C -1.445160 0.869284 -0.002399
C -2.555323 0.041366 -0.001084
C -2.366171 -1.335888 0.003145
C -1.103431 -1.905054 0.004074
C 0.029580 -1.092447 0.001697
O 1.221836 -1.698392 0.002953
C -0.144720 0.313165 0.000688
C 0.960079 1.196406 0.010665
N 1.843324 1.943083 0.021489
H -0.806732 2.683985 -0.010079
H -3.540474 0.482592 -0.003454
H -3.232938 -1.983323 0.003926
H -0.964812 -2.975811 0.004234
H 2.009541 -1.110031 -0.036008
O 3.638529 -0.407897 -0.096016
H 4.180274 -0.582760 0.679387
H 3.494280 0.548673 -0.106526
