25
3499.80
O 1.575104 1.559735 -0.185855
C 0.724534 1.063001 0.530357
C -0.569776 1.803264 0.786944
C -1.623925 1.616851 -0.336034
C -2.388357 0.280263 -0.339097
C -1.817766 -0.875658 -1.175797
C -0.352794 -1.285045 -0.906350
C -0.061076 -1.360367 0.578231
O -0.560485 -2.196226 1.292230
C 0.904634 -0.311858 1.143798
H -0.314362 2.861561 0.843116
H -1.005099 1.501170 1.741137
H -2.349524 2.420057 -0.200047
H -1.150084 1.799702 -1.303504
H -3.395246 0.469064 -0.717576
H -2.525610 -0.054627 0.692766
H -2.450977 -1.746754 -1.002921
H -1.902852 -0.631893 -2.237111
H -0.181699 -2.275372 -1.330140
H 0.340416 -0.601497 -1.394528
H 1.916483 -0.656404 0.915555
H 0.760318 -0.277159 2.223505
O 3.479821 -0.434880 -0.902140
H 4.409962 -0.215480 -0.805677
H 2.999908 0.395893 -0.750758
