16
3427.76
C 3.948100 -0.380940 0.013645
C 2.758760 -0.214524 0.007771
C 1.348245 -0.016995 0.000897
C 0.797525 1.269422 0.001752
C -0.581137 1.407670 -0.005433
N -1.423071 0.372699 -0.012110
C -0.898744 -0.855323 -0.013587
C 0.464833 -1.101742 -0.007655
H 4.999359 -0.528476 0.018333
H 1.437452 2.139585 0.007014
H -1.031046 2.393184 -0.006877
H -1.610722 -1.671696 -0.023337
H 0.840553 -2.114413 -0.010400
O -4.228745 -0.395966 -0.079233
H -3.370485 0.063148 -0.092770
H -4.499142 -0.367913 0.842339
