21
3282.81
N -1.510009 -1.539490 -0.642101
C -0.245222 -1.053589 -0.270159
C 0.811298 -1.894242 0.083800
C 2.058101 -1.365438 0.388056
C 2.260341 0.007776 0.379577
C 1.218983 0.863474 0.021531
N 1.391477 2.264511 -0.074185
C -0.021100 0.329121 -0.341150
N -1.069398 1.189013 -0.766266
H -2.277906 -1.083819 -0.155427
H -1.586258 -2.541456 -0.555094
H 0.645421 -2.963415 0.125738
H 2.869866 -2.026391 0.660098
H 3.222399 0.423621 0.651414
H 0.710264 2.786822 0.462187
H 2.318996 2.557568 0.195284
H -1.641194 0.719025 -1.461946
H -0.690163 2.038181 -1.169711
O -3.270754 0.490046 0.955603
H -3.019977 0.438304 1.882154
H -2.564321 1.010345 0.528418
