20
3590.26
C 3.162251 -0.394961 -0.014059
C 1.781391 0.222166 -0.150796
O 1.494968 1.153337 0.896079
C 0.686967 -0.843842 -0.143829
O 0.872440 -2.010360 -0.376155
O -0.522782 -0.308616 0.091109
C -1.632365 -1.236769 0.057061
C -2.867057 -0.476063 0.130448
C -3.898770 0.130018 0.186055
H 3.925299 0.381381 -0.089493
H 3.263545 -0.895894 0.947793
H 3.335584 -1.124642 -0.802427
H 1.688072 0.728046 -1.120731
H 2.193433 1.816047 0.901268
H -1.544617 -1.927619 0.896886
H -1.582573 -1.824135 -0.860241
H -4.812010 0.668288 0.240086
O -0.421877 2.810047 -0.590020
H -1.244439 2.344997 -0.766278
H 0.001204 2.274974 0.095753
