23
3501.97
C 2.188455 1.486152 0.008715
C 1.497455 0.141538 0.008217
O 2.148936 -0.892459 0.016620
C 0.008808 0.086319 0.001445
C -0.621977 -1.163484 0.003837
C -2.000714 -1.256916 -0.002087
C -2.802705 -0.109808 -0.009070
C -4.302570 -0.223989 0.000207
C -2.171674 1.133122 -0.012754
C -0.786888 1.233273 -0.007159
H 3.264593 1.336938 -0.003272
H 1.910594 2.057762 0.896247
H 1.888750 2.074424 -0.860385
H -0.005411 -2.050876 0.009770
H -2.469806 -2.233100 -0.001909
H -4.657845 -0.607632 0.959543
H -4.778459 0.740715 -0.169009
H -4.650541 -0.915024 -0.769182
H -2.770914 2.034630 -0.020930
H -0.332437 2.213710 -0.010327
O 5.000141 -0.496470 0.074770
H 4.070370 -0.776583 0.103930
H 5.289354 -0.720777 -0.813692
