24
3388.68
C 3.231707 -0.470351 -0.673471
N 2.139685 -0.814704 0.216814
C 1.219922 0.114393 0.611682
O 1.343312 1.311721 0.335003
N 0.194447 -0.376458 1.380317
C -0.999477 0.410756 1.634464
C -2.182281 -0.012114 0.748383
N -1.854356 -0.041463 -0.665419
C -1.381160 -1.156415 -1.260485
O -1.252465 -2.250537 -0.731778
H 4.066046 -1.148278 -0.499794
H 2.946735 -0.525981 -1.727958
H 3.550553 0.545341 -0.458659
H 1.898331 -1.787017 0.304526
H 0.050091 -1.374278 1.348630
H -1.291531 0.310784 2.682696
H -0.742243 1.452295 1.460810
H -2.517792 -1.010985 1.023735
H -3.011752 0.677885 0.908576
H -1.692930 0.847969 -1.128437
H -1.120779 -0.984831 -2.318139
O -0.663926 2.541531 -1.122913
H -0.366684 3.259565 -1.685952
H 0.125891 2.226579 -0.637953
