13
3596.65
O 0.617403 -0.749551 1.405101
C -0.075239 0.339370 0.886404
C 0.825471 1.342396 0.282029
N 1.586263 2.068947 -0.181356
C -1.142403 -0.091812 -0.143046
F -1.816932 0.972434 -0.607084
F -0.587483 -0.722887 -1.195553
F -2.017063 -0.927736 0.422246
H 1.292311 -1.040619 0.754479
H -0.622424 0.816298 1.702739
O 2.538979 -1.230202 -0.515726
H 2.168914 -1.484549 -1.367414
H 2.952639 -0.371764 -0.664116
