16
3436.77
C 3.639783 -1.112977 0.006104
C 2.548397 -0.611044 0.003561
C 1.252565 -0.022798 0.000624
C 1.072347 1.364644 0.008870
C -0.213972 1.877101 0.005165
C -1.286584 0.995074 -0.005746
N -1.130983 -0.331480 -0.013655
C 0.102337 -0.824569 -0.011259
H 4.604050 -1.556551 0.007583
H 1.933642 2.017823 0.017165
H -0.386600 2.944031 0.009810
H -2.309887 1.349633 -0.011842
H 0.198930 -1.903092 -0.020151
O -3.956278 -1.035416 -0.085341
H -2.983370 -1.022555 -0.099495
H -4.178890 -1.218185 0.831320
