21
3451.32
C 1.232868 1.673346 -0.037197
C 2.204905 0.507486 0.182788
C 0.044303 -0.323794 -0.059820
H 1.381104 2.484539 0.675545
H 1.327819 2.085482 -1.049940
H 2.529955 0.450988 1.229920
H 3.092638 0.576505 -0.445970
N -0.059937 1.033470 0.142738
N 1.383640 -0.637082 -0.169515
O -0.874230 -1.130371 -0.129978
C 1.855486 -1.989792 0.009537
H 2.185453 -2.173124 1.039232
H 1.039007 -2.668442 -0.222598
H 2.690818 -2.192623 -0.662064
C -1.287022 1.765411 -0.089122
H -1.355436 2.599501 0.610682
H -1.329618 2.166250 -1.108654
H -2.139366 1.108314 0.062578
O -3.673594 -0.744373 0.029013
H -2.737032 -0.977574 -0.094573
H -3.871910 -1.032520 0.923881
