20
3093.36
C 1.083276 -0.778676 1.291205
H 0.132032 -0.954158 1.788148
H 1.571862 -1.746422 1.100452
H 1.720415 -0.207805 1.966450
C 2.137076 0.396085 -0.534508
H 1.946564 1.020908 -1.406925
H 2.716825 0.977730 0.182168
H 2.745348 -0.464370 -0.852448
C 0.033115 -0.705967 -0.918478
C -1.307818 -1.217984 -0.390444
H 0.566715 -1.569716 -1.349871
H -0.143485 -0.002297 -1.735451
H -1.877926 -1.562890 -1.263255
H -1.152436 -2.093260 0.244310
N 0.870449 -0.009558 0.068138
O -2.053428 -0.293627 0.373811
H -1.868386 0.613262 0.077474
O -0.823342 2.243954 0.006988
H -0.985341 2.714583 0.829244
H -0.125059 1.577978 0.209695
