20
3484.25 3536.0
C 2.687243 1.046291 0.009974
C 1.304740 1.178144 0.005843
C 0.485487 0.045921 -0.000964
C 1.078032 -1.221384 -0.004022
C 2.456874 -1.352242 0.000414
C 3.264591 -0.217859 0.007536
H 3.312725 1.928616 0.014839
H 0.868993 2.166820 0.007073
H 0.435046 -2.089646 -0.010819
H 2.905936 -2.336271 -0.002239
H 4.341649 -0.320168 0.010695
C -1.005170 0.138789 -0.007096
O -1.679799 -0.879062 -0.015394
C -1.662283 1.499500 -0.006517
H -1.346323 2.080021 0.862064
H -1.371181 2.063946 -0.894440
H -2.741773 1.377056 0.006991
O -4.523793 -0.400203 -0.075848
H -3.605178 -0.714040 -0.102575
H -4.828247 -0.625184 0.807350
