24
3622.60 3623.0
C -2.541135 -2.151878 0.023248
C -3.168047 -0.902303 -0.033566
C -2.431491 0.276912 -0.069979
C -1.056709 0.142173 -0.046078
C -0.396716 -1.091723 0.009092
C -1.157507 -2.259798 0.045066
H -3.147050 -3.047185 0.049755
H -4.248053 -0.849835 -0.050976
H -2.895004 1.252160 -0.115012
H -0.682056 -3.230363 0.088148
C 1.096303 0.619377 -0.041319
C 2.288906 1.316212 -0.057078
C 3.454386 0.558219 -0.015243
C 3.410675 -0.838655 0.039342
C 2.199878 -1.517672 0.053480
C 1.018370 -0.778763 0.012459
H 2.310248 2.395638 -0.100947
H 4.411911 1.060628 -0.026126
H 4.336622 -1.396266 0.070320
H 2.176202 -2.598250 0.094629
O -0.157434 1.189895 -0.076762
O -1.796864 3.720803 0.027619
H -1.831238 3.824273 0.982901
H -1.098682 3.070998 -0.116086
